Test_Network/condensed/network_1/Feeder_4/Lines.txt
New Line.LINE25 Bus1=25 Bus2=26 phases=3 Linecode=2c_16 Length=10.1369 Units=m
New Line.LINE51 Bus1=47 Bus2=52 phases=3 Linecode=2c_16 Length=5.4578 Units=m
New Line.LINE52 Bus1=47 Bus2=53 phases=3 Linecode=2c_16 Length=5.4578 Units=m
New Line.LINE73 Bus1=70 Bus2=74 phases=3 Linecode=2c_16 Length=7.0789 Units=m
New Line.LINE74 Bus1=70 Bus2=75 phases=3 Linecode=2c_16 Length=7.0789 Units=m
New Line.LINE146 Bus1=139 Bus2=147 phases=3 Linecode=2c_16 Length=12.2672 Units=m
New Line.LINE158 Bus1=149 Bus2=159 phases=3 Linecode=2c_16 Length=11.3628 Units=m
New Line.LINE246 Bus1=234 Bus2=247 phases=3 Linecode=2c_25 Length=4.6779 Units=m
New Line.LINE247 Bus1=234 Bus2=248 phases=3 Linecode=2c_25 Length=4.6779 Units=m
New Line.LINE286 Bus1=274 Bus2=287 phases=3 Linecode=2c_16 Length=6.2806 Units=m
New Line.LINE287 Bus1=274 Bus2=288 phases=3 Linecode=2c_16 Length=0.65928 Units=m
New Line.LINE298 Bus1=284 Bus2=299 phases=3 Linecode=4c_70 Length=2.3625 Units=m
New Line.LINE301 Bus1=287 Bus2=302 phases=3 Linecode=2c_16 Length=8.3858 Units=m
New Line.LINE302 Bus1=287 Bus2=303 phases=3 Linecode=2c_16 Length=3.0457 Units=m
New Line.LINE348 Bus1=335 Bus2=349 phases=3 Linecode=4c_.1 Length=3.0977 Units=m
New Line.LINE383 Bus1=372 Bus2=384 phases=3 Linecode=2c_16 Length=10.1257 Units=m
New Line.LINE396 Bus1=382 Bus2=397 phases=3 Linecode=2c_16 Length=4.8984 Units=m
New Line.LINE446 Bus1=434 Bus2=447 phases=3 Linecode=2c_.0225 Length=4.5589 Units=m
New Line.LINE447 Bus1=434 Bus2=448 phases=3 Linecode=2c_.0225 Length=4.5589 Units=m
New Line.LINE515 Bus1=509 Bus2=516 phases=3 Linecode=4c_.1 Length=2.6435 Units=m
New Line.LINE589 Bus1=584 Bus2=590 phases=3 Linecode=2c_.0225 Length=5.4565 Units=m
New Line.LINE590 Bus1=584 Bus2=591 phases=3 Linecode=2c_.0225 Length=5.4565 Units=m
New Line.LINE644 Bus1=636 Bus2=645 phases=3 Linecode=2c_16 Length=5.1742 Units=m
New Line.LINE840 Bus1=834 Bus2=841 phases=3 Linecode=4c_.1 Length=7.903 Units=m
New Line.LINE880 Bus1=875 Bus2=881 phases=3 Linecode=4c_.1 Length=6.8244 Units=m
New Line.LINE886 Bus1=881 Bus2=887 phases=3 Linecode=4c_.1 Length=7.2792 Units=m
New Line.LINE1069 Bus1=1065 Bus2=1070 phases=3 Linecode=4c_.1 Length=9.7646 Units=m
New Line.LINE1075 Bus1=1070 Bus2=1076 phases=3 Linecode=4c_.1 Length=5.8051 Units=m
New Line.LINE1156 Bus1=1156 Bus2=1157 phases=3 Linecode=4c_.1 Length=2.8873 Units=m
New Line.LINE1186 Bus1=1184 Bus2=1187 phases=3 Linecode=2c_.022 Length=8.2247 Units=m
New Line.LINECmpd_0 Bus1=80 Bus2=116 phases=3 Linecode=4c_.06 Length=26.91034 Units=m
New Line.LINECmpd_1 Bus1=1 Bus2=25 phases=3 Linecode=4c_70 Length=54.636444 Units=m
New Line.LINECmpd_2 Bus1=349 Bus2=492 phases=3 Linecode=2c_.0225 Length=19.76837 Units=m
New Line.LINECmpd_3 Bus1=84 Bus2=101 phases=3 Linecode=4c_.35 Length=15.5199 Units=m
New Line.LINECmpd_4 Bus1=44 Bus2=84 phases=3 Linecode=4c_.35 Length=35.85086 Units=m
New Line.LINECmpd_5 Bus1=225 Bus2=382 phases=3 Linecode=2c_16 Length=14.505165 Units=m
New Line.LINECmpd_6 Bus1=372 Bus2=585 phases=3 Linecode=4c_.06 Length=25.655544 Units=m
New Line.LINECmpd_7 Bus1=834 Bus2=886 phases=3 Linecode=2c_.0225 Length=17.78346 Units=m
New Line.LINECmpd_8 Bus1=162 Bus2=274 phases=3 Linecode=2c_16 Length=12.621488 Units=m
New Line.LINECmpd_9 Bus1=516 Bus2=549 phases=3 Linecode=4c_.1 Length=10.2965 Units=m
New Line.LINECmpd_10 Bus1=216 Bus2=468 phases=3 Linecode=2c_16 Length=20.147936 Units=m
New Line.LINECmpd_11 Bus1=977 Bus2=1036 phases=3 Linecode=4c_.06 Length=14.39261 Units=m
New Line.LINECmpd_12 Bus1=147 Bus2=280 phases=3 Linecode=2c_16 Length=8.95362 Units=m
New Line.LINECmpd_13 Bus1=727 Bus2=798 phases=3 Linecode=4c_.06 Length=13.72713 Units=m
New Line.LINECmpd_14 Bus1=349 Bus2=459 phases=3 Linecode=4c_.1 Length=15.4385 Units=m
New Line.LINECmpd_15 Bus1=84 Bus2=153 phases=3 Linecode=2c_16 Length=10.45979 Units=m
New Line.LINECmpd_16 Bus1=1157 Bus2=1166 phases=3 Linecode=4c_.1 Length=10.77682 Units=m
New Line.LINECmpd_17 Bus1=25 Bus2=37 phases=3 Linecode=4c_70 Length=19.8543 Units=m
New Line.LINECmpd_18 Bus1=739 Bus2=831 phases=3 Linecode=2c_16 Length=14.50815 Units=m
New Line.LINECmpd_19 Bus1=938 Bus2=1050 phases=3 Linecode=2c_.0225 Length=17.67265 Units=m
New Line.LINECmpd_20 Bus1=459 Bus2=509 phases=3 Linecode=4c_.1 Length=14.4004 Units=m
New Line.LINECmpd_21 Bus1=1100 Bus2=1144 phases=3 Linecode=2c_.0225 Length=13.15101 Units=m
New Line.LINECmpd_22 Bus1=549 Bus2=799 phases=3 Linecode=4c_.1 Length=40.1683 Units=m
New Line.LINECmpd_23 Bus1=160 Bus2=249 phases=3 Linecode=2c_25 Length=9.51421 Units=m
New Line.LINECmpd_24 Bus1=897 Bus2=945 phases=3 Linecode=2c_16 Length=3.762047 Units=m
New Line.LINECmpd_25 Bus1=26 Bus2=47 phases=3 Linecode=2c_16 Length=3.24638 Units=m
New Line.LINECmpd_26 Bus1=159 Bus2=246 phases=3 Linecode=2c_16 Length=6.90775 Units=m
New Line.LINECmpd_27 Bus1=44 Bus2=80 phases=3 Linecode=4c_70 Length=12.70951 Units=m
New Line.LINECmpd_28 Bus1=116 Bus2=162 phases=3 Linecode=4c_.06 Length=23.34418 Units=m
New Line.LINECmpd_29 Bus1=384 Bus2=522 phases=3 Linecode=2c_16 Length=4.726182 Units=m
New Line.LINECmpd_30 Bus1=1210 Bus2=1221 phases=3 Linecode=4c_.1 Length=7.89909 Units=m
New Line.LINECmpd_31 Bus1=977 Bus2=1065 phases=3 Linecode=4c_.1 Length=20.67172 Units=m
New Line.LINECmpd_32 Bus1=380 Bus2=411 phases=3 Linecode=2c_16 Length=4.5837 Units=m
New Line.LINECmpd_33 Bus1=37 Bus2=50 phases=3 Linecode=2c_16 Length=8.62003 Units=m
New Line.LINECmpd_34 Bus1=636 Bus2=783 phases=3 Linecode=2c_16 Length=12.11021 Units=m
New Line.LINECmpd_35 Bus1=1221 Bus2=1230 phases=3 Linecode=2c_.0225 Length=16.58105 Units=m
New Line.LINECmpd_36 Bus1=80 Bus2=93 phases=3 Linecode=4c_70 Length=11.54 Units=m
New Line.LINECmpd_37 Bus1=632 Bus2=687 phases=3 Linecode=4c_.06 Length=4.78075 Units=m
New Line.LINECmpd_38 Bus1=739 Bus2=802 phases=3 Linecode=2c_16 Length=3.24856 Units=m
New Line.LINECmpd_39 Bus1=335 Bus2=366 phases=3 Linecode=2c_.0225 Length=15.8841 Units=m
New Line.LINECmpd_40 Bus1=1134 Bus2=1150 phases=3 Linecode=4c_95_SAC_XC Length=52.2331 Units=m
New Line.LINECmpd_41 Bus1=898 Bus2=921 phases=3 Linecode=4c_.1 Length=11.4748 Units=m
New Line.LINECmpd_42 Bus1=1087 Bus2=1134 phases=3 Linecode=4c_95_SAC_XC Length=176.46516 Units=m
New Line.LINECmpd_43 Bus1=1036 Bus2=1087 phases=3 Linecode=3c_95_SAC_ASN Length=66.79602 Units=m
New Line.LINECmpd_44 Bus1=841 Bus2=875 phases=3 Linecode=4c_.1 Length=10.09443 Units=m
New Line.LINECmpd_45 Bus1=798 Bus2=897 phases=3 Linecode=2c_16 Length=10.10608 Units=m
New Line.LINECmpd_46 Bus1=605 Bus2=631 phases=3 Linecode=2c_16 Length=9.25759 Units=m
New Line.LINECmpd_47 Bus1=160 Bus2=234 phases=3 Linecode=2c_25 Length=4.20504 Units=m
New Line.LINECmpd_48 Bus1=921 Bus2=938 phases=3 Linecode=4c_.1 Length=6.0046 Units=m
New Line.LINECmpd_49 Bus1=93 Bus2=160 phases=3 Linecode=2c_25 Length=10.25682 Units=m
New Line.LINECmpd_50 Bus1=632 Bus2=739 phases=3 Linecode=2c_16 Length=10.90506 Units=m
New Line.LINECmpd_51 Bus1=1166 Bus2=1184 phases=3 Linecode=4c_.1 Length=12.11178 Units=m
New Line.LINECmpd_52 Bus1=116 Bus2=174 phases=3 Linecode=2c_16 Length=15.80622 Units=m
New Line.LINECmpd_53 Bus1=101 Bus2=181 phases=3 Linecode=2c_16 Length=13.21182 Units=m
New Line.LINECmpd_54 Bus1=631 Bus2=692 phases=3 Linecode=2c_16 Length=5.251367 Units=m
New Line.LINECmpd_55 Bus1=1100 Bus2=1156 phases=3 Linecode=4c_.1 Length=9.99956 Units=m
New Line.LINECmpd_56 Bus1=687 Bus2=727 phases=3 Linecode=4c_.06 Length=10.95893 Units=m
New Line.LINECmpd_57 Bus1=258 Bus2=434 phases=3 Linecode=2c_.0225 Length=26.07368 Units=m
New Line.LINECmpd_58 Bus1=887 Bus2=1000 phases=3 Linecode=2c_.0225 Length=13.06953 Units=m
New Line.LINECmpd_59 Bus1=481 Bus2=520 phases=3 Linecode=2c_.0225 Length=9.174508 Units=m
New Line.LINECmpd_60 Bus1=881 Bus2=960 phases=3 Linecode=2c_.0225 Length=18.548293 Units=m
New Line.LINECmpd_61 Bus1=101 Bus2=139 phases=3 Linecode=4c_.35 Length=16.564 Units=m
New Line.LINECmpd_62 Bus1=153 Bus2=190 phases=3 Linecode=2c_16 Length=5.84477 Units=m
New Line.LINECmpd_63 Bus1=897 Bus2=1022 phases=3 Linecode=2c_16 Length=11.42522 Units=m
New Line.LINECmpd_64 Bus1=153 Bus2=292 phases=3 Linecode=2c_16 Length=8.868836 Units=m
New Line.LINECmpd_65 Bus1=1184 Bus2=1199 phases=3 Linecode=4c_.1 Length=12.1851 Units=m
New Line.LINECmpd_66 Bus1=898 Bus2=989 phases=3 Linecode=2c_.0225 Length=10.59284 Units=m
New Line.LINECmpd_67 Bus1=631 Bus2=679 phases=3 Linecode=2c_16 Length=6.00783 Units=m
New Line.LINECmpd_68 Bus1=231 Bus2=380 phases=3 Linecode=2c_16 Length=15.53551 Units=m
New Line.LINECmpd_69 Bus1=291 Bus2=372 phases=3 Linecode=4c_.06 Length=16.9026 Units=m
New Line.LINECmpd_70 Bus1=585 Bus2=636 phases=3 Linecode=2c_16 Length=5.13646 Units=m
New Line.LINECmpd_71 Bus1=481 Bus2=554 phases=3 Linecode=2c_.0225 Length=5.05037 Units=m
New Line.LINECmpd_72 Bus1=459 Bus2=481 phases=3 Linecode=2c_.0225 Length=10.690048 Units=m
New Line.LINECmpd_73 Bus1=516 Bus2=584 phases=3 Linecode=2c_.0225 Length=10.31015 Units=m
New Line.LINECmpd_74 Bus1=291 Bus2=330 phases=3 Linecode=2c_16 Length=10.22234 Units=m
New Line.LINECmpd_75 Bus1=225 Bus2=291 phases=3 Linecode=4c_.06 Length=16.0809 Units=m
New Line.LINECmpd_76 Bus1=380 Bus2=473 phases=3 Linecode=2c_16 Length=8.663245 Units=m
New Line.LINECmpd_77 Bus1=149 Bus2=231 phases=3 Linecode=4c_70 Length=15.8569 Units=m
New Line.LINECmpd_78 Bus1=139 Bus2=216 phases=3 Linecode=4c_.35 Length=13.77928 Units=m
New Line.LINECmpd_79 Bus1=330 Bus2=484 phases=3 Linecode=2c_16 Length=7.00036 Units=m
New Line.LINECmpd_80 Bus1=1076 Bus2=1100 phases=3 Linecode=4c_.1 Length=7.574 Units=m
New Line.LINECmpd_81 Bus1=727 Bus2=748 phases=3 Linecode=2c_16 Length=12.2605 Units=m
New Line.LINECmpd_82 Bus1=1166 Bus2=1172 phases=3 Linecode=2c_.0225 Length=13.332 Units=m
New Line.LINECmpd_83 Bus1=181 Bus2=294 phases=3 Linecode=2c_16 Length=8.25 Units=m
New Line.LINECmpd_84 Bus1=1070 Bus2=1085 phases=3 Linecode=2c_.0225 Length=10.1473 Units=m
New Line.LINECmpd_85 Bus1=799 Bus2=816 phases=3 Linecode=2c_.0225 Length=14.4331 Units=m
New Line.LINECmpd_86 Bus1=162 Bus2=225 phases=3 Linecode=4c_.06 Length=10.7353 Units=m
New Line.LINECmpd_87 Bus1=299 Bus2=335 phases=3 Linecode=4c_.1 Length=10.471 Units=m
New Line.LINECmpd_88 Bus1=841 Bus2=854 phases=3 Linecode=2c_.0225 Length=16.7391 Units=m
New Line.LINECmpd_89 Bus1=26 Bus2=32 phases=3 Linecode=2c_16 Length=6.8569 Units=m
New Line.LINECmpd_90 Bus1=384 Bus2=416 phases=3 Linecode=2c_16 Length=7.5079 Units=m
New Line.LINECmpd_91 Bus1=549 Bus2=622 phases=3 Linecode=2c_.0225 Length=25.24848 Units=m
New Line.LINECmpd_92 Bus1=50 Bus2=61 phases=3 Linecode=2c_16 Length=8.6888 Units=m
New Line.LINECmpd_93 Bus1=284 Bus2=311 phases=3 Linecode=2c_.0225 Length=20.5954 Units=m
New Line.LINECmpd_94 Bus1=37 Bus2=44 phases=3 Linecode=4c_70 Length=13.2286 Units=m
New Line.LINECmpd_95 Bus1=330 Bus2=358 phases=3 Linecode=2c_16 Length=6.4466 Units=m
New Line.LINECmpd_96 Bus1=50 Bus2=70 phases=3 Linecode=2c_16 Length=2.53242 Units=m
New Line.LINECmpd_97 Bus1=1187 Bus2=1212 phases=3 Linecode=2c_.022 Length=7.2967 Units=m
New Line.LINECmpd_98 Bus1=938 Bus2=977 phases=3 Linecode=4c_.1 Length=16.49433 Units=m
New Line.LINECmpd_99 Bus1=1156 Bus2=1161 phases=3 Linecode=2c_.0225 Length=13.6364 Units=m
New Line.LINECmpd_100 Bus1=258 Bus2=284 phases=3 Linecode=4c_70 Length=3.4968 Units=m
New Line.LINECmpd_101 Bus1=799 Bus2=820 phases=3 Linecode=4c_.1 Length=10.9981 Units=m
New Line.LINECmpd_102 Bus1=159 Bus2=184 phases=3 Linecode=2c_16 Length=4.9572 Units=m
New Line.LINECmpd_103 Bus1=93 Bus2=149 phases=3 Linecode=4c_70 Length=21.0089 Units=m
New Line.LINECmpd_104 Bus1=875 Bus2=889 phases=3 Linecode=2c_.0225 Length=16.5615 Units=m
New Line.LINECmpd_105 Bus1=687 Bus2=708 phases=3 Linecode=2c_16 Length=12.069 Units=m
New Line.LINECmpd_106 Bus1=921 Bus2=939 phases=3 Linecode=2c_.0225 Length=12.5136 Units=m
New Line.LINECmpd_107 Bus1=1210 Bus2=1216 phases=3 Linecode=2c_.0225 Length=17.4098 Units=m
New Line.LINECmpd_108 Bus1=1199 Bus2=1210 phases=3 Linecode=4c_.1 Length=6.4832 Units=m
New Line.LINECmpd_109 Bus1=509 Bus2=527 phases=3 Linecode=2c_.0225 Length=12.8795 Units=m
New Line.LINECmpd_110 Bus1=820 Bus2=833 phases=3 Linecode=2c_.0225 Length=16.5379 Units=m
New Line.LINECmpd_111 Bus1=147 Bus2=167 phases=3 Linecode=2c_16 Length=6.2108 Units=m
New Line.LINECmpd_112 Bus1=1199 Bus2=1207 phases=3 Linecode=2c_.0225 Length=11.4721 Units=m
New Line.LINECmpd_113 Bus1=605 Bus2=632 phases=3 Linecode=4c_.06 Length=8.25821 Units=m
New Line.LINECmpd_114 Bus1=585 Bus2=605 phases=3 Linecode=4c_.06 Length=12.2941 Units=m
New Line.LINECmpd_115 Bus1=382 Bus2=414 phases=3 Linecode=2c_16 Length=9.9679 Units=m
New Line.LINECmpd_116 Bus1=231 Bus2=258 phases=3 Linecode=4c_70 Length=3.93754 Units=m
New Line.LINECmpd_117 Bus1=1187 Bus2=1194 phases=3 Linecode=2c_.0225 Length=10.9111 Units=m
New Line.LINECmpd_118 Bus1=1134 Bus2=1147 phases=3 Linecode=4c_95_SAC_XC Length=17.7683 Units=m
New Line.LINECmpd_119 Bus1=820 Bus2=834 phases=3 Linecode=4c_.1 Length=3.24018 Units=m
New Line.LINECmpd_120 Bus1=1065 Bus2=1078 phases=3 Linecode=2c_.0225 Length=10.411 Units=m
New Line.LINECmpd_121 Bus1=181 Bus2=206 phases=3 Linecode=2c_16 Length=6.0979 Units=m
New Line.LINECmpd_122 Bus1=1157 Bus2=1163 phases=3 Linecode=2c_.0225 Length=13.8329 Units=m
New Line.LINECmpd_123 Bus1=1076 Bus2=1091 phases=3 Linecode=2c_.0225 Length=10.4884 Units=m
New Line.LINECmpd_124 Bus1=887 Bus2=898 phases=3 Linecode=4c_.1 Length=5.63356 Units=m
